trunk/Version8/Distrib/Examples/HarmonicsBenchmarking/Model/lines.dss

new line.1_2_1_1 Bus1=1_bus1 Bus2=2_bus2 phases=3 r1=10.24673 x1=31.295640000000002 r0=10.24673 x0=31.295640000000002 c1=264.7066618091101 c0=264.7066618091101 length=1.0 normamps=251.02185616940253 emergamps=376.5327842541038 enabled=true
new line.1_5_1_1 Bus1=1_bus1 Bus2=5_bus5 phases=3 r1=28.57658 x1=117.967 r0=28.57658 x0=117.967 c1=246.70520479273003 c0=246.70520479273003 length=1.0 normamps=251.02185616940253 emergamps=376.5327842541038 enabled=true
new line.2_3_1_1 Bus1=2_bus2 Bus2=3_bus3 phases=3 r1=24.84713 x1=104.71026 r0=24.84713 x0=104.71026 c1=219.62780426669866 c0=219.62780426669866 length=1.0 normamps=251.02185616940253 emergamps=376.5327842541038 enabled=true
new line.2_4_1_1 Bus1=2_bus2 Bus2=4_bus4 phases=3 r1=30.7349 x1=93.25211999999999 r0=30.7349 x0=93.25211999999999 c1=187.53607030992077 c0=187.53607030992077 length=1.0 normamps=251.02185616940253 emergamps=376.5327842541038 enabled=true
new line.2_5_1_1 Bus1=2_bus2 Bus2=5_bus5 phases=3 r1=30.11597 x1=91.96136000000001 r0=30.11597 x0=91.96136000000001 c1=169.785329965078 c0=169.785329965078 length=1.0 normamps=251.02185616940253 emergamps=376.5327842541038 enabled=true
new line.3_4_1_1 Bus1=3_bus3 Bus2=4_bus4 phases=3 r1=35.443000000000005 x1=90.45371 r0=35.443000000000005 x0=90.45371 c1=173.49593670383044 c0=173.49593670383044 length=1.0 normamps=251.02185616940253 emergamps=376.5327842541038 enabled=true
new line.4_5_1_1 Bus1=4_bus4 Bus2=5_bus5 phases=3 r1=7.062150000000001 x1=22.26561 r0=7.062150000000001 x0=22.26561 c1=64.18346791355577 c0=64.18346791355577 length=1.0 normamps=251.02185616940253 emergamps=376.5327842541038 enabled=true



new line.6_11_1_1 Bus1=6_bus6 Bus2=11_bus11 phases=3 r1=12.557137500000001 x1=26.3005575 r0=12.557137500000001 x0=26.3005575 c1=0.0 c0=0.0 length=1.0 normamps=502.04371233880505 emergamps=753.0655685082075 enabled=true
new line.6_12_1_1 Bus1=6_bus6 Bus2=12_bus12 phases=3 r1=16.2469125 x1=33.822937499999995 r0=16.2469125 x0=33.822937499999995 c1=0.0 c0=0.0 length=1.0 normamps=502.04371233880505 emergamps=753.0655685082075 enabled=true
new line.6_13_1_1 Bus1=6_bus6 Bus2=13_bus13 phases=3 r1=8.745692499999999 x1=17.22424 r0=8.745692499999999 x0=17.22424 c1=0.0 c0=0.0 length=1.0 normamps=502.04371233880505 emergamps=753.0655685082075 enabled=true
new line.9_10_1_1 Bus1=9_bus9 Bus2=10_bus10 phases=3 r1=4.206872499999999 x1=11.17248 r0=4.206872499999999 x0=11.17248 c1=0.0 c0=0.0 length=1.0 normamps=502.04371233880505 emergamps=753.0655685082075 enabled=true
new line.9_14_1_1 Bus1=9_bus9 Bus2=14_bus14 phases=3 r1=16.79575 x1=35.7511425 r0=16.79575 x0=35.7511425 c1=0.0 c0=0.0 length=1.0 normamps=502.04371233880505 emergamps=753.0655685082075 enabled=true
new line.10_11_1_1 Bus1=10_bus10 Bus2=11_bus11 phases=3 r1=10.8484675 x1=25.394645 r0=10.8484675 x0=25.394645 c1=0.0 c0=0.0 length=1.0 normamps=502.04371233880505 emergamps=753.0655685082075 enabled=true
new line.12_13_1_1 Bus1=12_bus12 Bus2=13_bus13 phases=3 r1=29.2100575 x1=26.4301625 r0=29.2100575 x0=26.4301625 c1=0.0 c0=0.0 length=1.0 normamps=502.04371233880505 emergamps=753.0655685082075 enabled=true
new line.13_14_1_1 Bus1=13_bus13 Bus2=14_bus14 phases=3 r1=22.600202499999998 x1=46.0163875 r0=22.600202499999998 x0=46.0163875 c1=0.0 c0=0.0 length=1.0 normamps=502.04371233880505 emergamps=753.0655685082075 enabled=true

